846
XV-hse3c
 O   16.974536   12.709549   14.021867
 O   16.933093   15.466476   13.964204
 O   16.930796   12.609540    7.797333
 O   16.902502    6.519214   14.021867
 O   16.889352   15.366466    7.739688
 O   16.887055   12.509530    1.572819
 O   16.861058    9.276122   13.964204
 O   16.858762    6.419204    7.797333
 O   16.845612   15.266456    1.515173
 O   16.830468    0.328861   14.021867
 O   16.817318    9.176112    7.739688
 O   16.815021    6.319195    1.572819
 O   16.789024    3.085786   13.964204
 O   16.786727    0.228851    7.797333
 O   16.773578    9.076102    1.515173
 O   16.745284    2.985777    7.739688
 O   16.742987    0.128842    1.572819
 O   16.701543    2.885767    1.515173
 O   16.234803   14.219299   17.121848
 O   16.191063   14.119289   10.897313
 O   16.162769    8.028946   17.121848
 O   16.147322   14.019280    4.672798
 O   16.119028    7.928936   10.897313
 O   16.090735    1.838611   17.121848
 O   16.075288    7.828926    4.672798
 O   16.046994    1.738601   10.897313
 O   16.003254    1.638591    4.672798
 O   15.675873   17.343715   18.517491
 O   15.632133   17.243706   12.292957
 O   15.603839   11.153362   18.517491
 O   15.591447   17.273477   15.759461
 O   15.588392   17.143696    6.068442
 O   15.560098   11.053352   12.292957
 O   15.547707   17.173467    9.534946
 O   15.531805    4.963027   18.517491
 O   15.519413   11.083142   15.759461
 O   15.516358   10.953343    6.068442
 O   15.503967   17.073458    3.310431
 O   15.488064    4.863017   12.292957
 O   15.475673   10.983132    9.534946
 O   15.447379    4.892788   15.759461
 O   15.444324    4.763007    6.068442
 O   15.431933   10.883123    3.310431
 O   15.403639    4.792779    9.534946
 O   15.359898    4.692769    3.310431
 O   14.048942   14.178284   15.363134
 O   14.005202   14.078274    9.138618
 O   13.976908    7.987930   15.363134
 O   13.964517   14.108045   12.605123
 O   13.961462   13.978264    2.914103
 O   13.933168    7.887921    9.138618
 O   13.920776   14.008036    6.380608
 O   13.904874    1.797595   15.363134
 O   13.892482    7.917710   12.605123
 O   13.889427    7.787911    2.914103
 O   13.877036   13.908026    0.156074
 O   13.861134    1.697585    9.138618
 O   13.848742    7.817701    6.380608
 O   13.820448    1.727357   12.605123
 O   13.817393    1.597576    2.914103
 O   13.805002    7.717691    0.156074
 O   13.776708    1.627347    6.380608
 O   13.732967    1.527337    0.156074
 O   13.405569   17.232462   14.000766
 O   13.361829   17.132452    7.776251
 O   13.333535   11.042126   14.000766
 O   13.318088   17.032442    1.551717
 O   13.289795   10.942117    7.776251
 O   13.261501    4.851773   14.000766
 O   13.246054   10.842107    1.551717
 O   13.217760    4.751763    7.776251
 O   13.174020    4.651753    1.551717
 O   12.707280   15.985285   17.158392
 O   12.665836   18.742211   17.100746
 O   12.663540   15.885276   10.933876
 O   12.635246    9.794950   17.158392
 O   12.622096   18.642201   10.876231
 O   12.619800   15.785266    4.709361
 O   12.593802   12.551858   17.100746
 O   12.591506    9.694941   10.933876
 O   12.578356   18.542192    4.651697
 O   12.563212    3.604596   17.158392
 O   12.550062   12.451848   10.876231
 O   12.547766    9.594931    4.709361
 O   12.521768    6.361523   17.100746
 O   12.519472    3.504587   10.933876
 O   12.506321   12.351839    4.651697
 O   12.478028    6.261513   10.876231
 O   12.475731    3.404577    4.709361
 O   12.434287    6.161503    4.651697
 O   11.162240   12.709549   14.021867
 O   11.120796   15.466476   13.964204
 O   11.118500   12.609540    7.797333
 O   11.090206    6.519214   14.021867
 O   11.077056   15.366466    7.739688
 O   11.074759   12.509530    1.572819
 O   11.048762    9.276122   13.964204
 O   11.046465    6.419204    7.797333
 O   11.033315   15.266456    1.515173
 O   11.018172    0.328861   14.021867
 O   11.005021    9.176112    7.739688
 O   11.002725    6.319195    1.572819
 O   10.976728    3.085786   13.964204
 O   10.974431    0.228851    7.797333
 O   10.961281    9.076102    1.515173
 O   10.932987    2.985777    7.739688
 O   10.930691    0.128842    1.572819
 O   10.889247    2.885767    1.515173
 O   10.422506   14.219299   17.121848
 O   10.378766   14.119289   10.897313
 O   10.350472    8.028946   17.121848
 O   10.335026   14.019280    4.672798
 O   10.306732    7.928936   10.897313
 O   10.278438    1.838611   17.121848
 O   10.262991    7.828926    4.672798
 O   10.234698    1.738601   10.897313
 O   10.190957    1.638591    4.672798
 O    9.863577   17.343715   18.517491
 O    9.819836   17.243706   12.292957
 O    9.791542   11.153362   18.517491
 O    9.779133   17.273477   15.759461
 O    9.776096   17.143696    6.068442
 O    9.747802   11.053352   12.292957
 O    9.735393   17.173467    9.534946
 O    9.719508    4.963027   18.517491
 O    9.707099   11.083142   15.759461
 O    9.704061   10.953343    6.068442
 O    9.691653   17.073458    3.310431
 O    9.675768    4.863017   12.292957
 O    9.663359   10.983132    9.534946
 O    9.635065    4.892788   15.759461
 O    9.632027    4.763007    6.068442
 O    9.619619   10.883123    3.310431
 O    9.591325    4.792779    9.534946
 O    9.547584    4.692769    3.310431
 O    8.236646   14.178284   15.363134
 O    8.192906   14.078274    9.138618
 O    8.164612    7.987930   15.363134
 O    8.152203   14.108045   12.605123
 O    8.149166   13.978264    2.914103
 O    8.120872    7.887921    9.138618
 O    8.108463   14.008036    6.380608
 O    8.092578    1.797595   15.363134
 O    8.080169    7.917710   12.605123
 O    8.077131    7.787911    2.914103
 O    8.064722   13.908026    0.156074
 O    8.048838    1.697585    9.138618
 O    8.036429    7.817701    6.380608
 O    8.008135    1.727357   12.605123
 O    8.005097    1.597576    2.914103
 O    7.992688    7.717691    0.156074
 O    7.964394    1.627347    6.380608
 O    7.920654    1.527337    0.156074
 O    7.593273   17.232462   14.000766
 O    7.549533   17.132452    7.776251
 O    7.521239   11.042126   14.000766
 O    7.505792   17.032442    1.551717
 O    7.477499   10.942117    7.776251
 O    7.449205    4.851773   14.000766
 O    7.433758   10.842107    1.551717
 O    7.405465    4.751763    7.776251
 O    7.361724    4.651753    1.551717
 O    6.894984   15.985285   17.158392
 O    6.853540   18.742211   17.100746
 O    6.851243   15.885276   10.933876
 O    6.822949    9.794950   17.158392
 O    6.809799   18.642201   10.876231
 O    6.807503   15.785266    4.709361
 O    6.781505   12.551858   17.100746
 O    6.779209    9.694941   10.933876
 O    6.766059   18.542192    4.651697
 O    6.750915    3.604596   17.158392
 O    6.737765   12.451848   10.876231
 O    6.735469    9.594931    4.709361
 O    6.709471    6.361523   17.100746
 O    6.707175    3.504587   10.933876
 O    6.694024   12.351839    4.651697
 O    6.665731    6.261513   10.876231
 O    6.663434    3.404577    4.709361
 O    6.621990    6.161503    4.651697
 O    5.349943   12.709549   14.021867
 O    5.308499   15.466476   13.964204
 O    5.306203   12.609540    7.797333
 O    5.277909    6.519214   14.021867
 O    5.264759   15.366466    7.739688
 O    5.262463   12.509530    1.572819
 O    5.236465    9.276122   13.964204
 O    5.234169    6.419204    7.797333
 O    5.221019   15.266456    1.515173
 O    5.205875    0.328861   14.021867
 O    5.192725    9.176112    7.739688
 O    5.190428    6.319195    1.572819
 O    5.164431    3.085786   13.964204
 O    5.162134    0.228851    7.797333
 O    5.148984    9.076102    1.515173
 O    5.120690    2.985777    7.739688
 O    5.118394    0.128842    1.572819
 O    5.076950    2.885767    1.515173
 O    4.610210   14.219299   17.121848
 O    4.566470   14.119289   10.897313
 O    4.538176    8.028946   17.121848
 O    4.522730   14.019280    4.672798
 O    4.494436    7.928936   10.897313
 O    4.466142    1.838611   17.121848
 O    4.450695    7.828926    4.672798
 O    4.422402    1.738601   10.897313
 O    4.378661    1.638591    4.672798
 O    4.051263   17.343715   18.517491
 O    4.007523   17.243706   12.292957
 O    3.979229   11.153362   18.517491
 O    3.966837   17.273477   15.759461
 O    3.963782   17.143696    6.068442
 O    3.935488   11.053352   12.292957
 O    3.923097   17.173467    9.534946
 O    3.907195    4.963027   18.517491
 O    3.894803   11.083142   15.759461
 O    3.891748   10.953343    6.068442
 O    3.879356   17.073458    3.310431
 O    3.863454    4.863017   12.292957
 O    3.851063   10.983132    9.534946
 O    3.822769    4.892788   15.759461
 O    3.819714    4.763007    6.068442
 O    3.807322   10.883123    3.310431
 O    3.779028    4.792779    9.534946
 O    3.735288    4.692769    3.310431
 O    2.424332   14.178284   15.363134
 O    2.380592   14.078274    9.138618
 O    2.352298    7.987930   15.363134
 O    2.339907   14.108045   12.605123
 O    2.336852   13.978264    2.914103
 O    2.308558    7.887921    9.138618
 O    2.296166   14.008036    6.380608
 O    2.280264    1.797595   15.363134
 O    2.267872    7.917710   12.605123
 O    2.264817    7.787911    2.914103
 O    2.252426   13.908026    0.156074
 O    2.236524    1.697585    9.138618
 O    2.224132    7.817701    6.380608
 O    2.195838    1.727357   12.605123
 O    2.192783    1.597576    2.914103
 O    2.180392    7.717691    0.156074
 O    2.152098    1.627347    6.380608
 O    2.108357    1.527337    0.156074
 O    1.780977   17.232462   14.000766
 O    1.737236   17.132452    7.776251
 O    1.708942   11.042126   14.000766
 O    1.693496   17.032442    1.551717
 O    1.665202   10.942117    7.776251
 O    1.636908    4.851773   14.000766
 O    1.621462   10.842107    1.551717
 O    1.593168    4.751763    7.776251
 O    1.549427    4.651753    1.551717
 O    1.082687   15.985285   17.158392
 O    1.041243   18.742211   17.100746
 O    1.038947   15.885276   10.933876
 O    1.010653    9.794950   17.158392
 O    0.997503   18.642201   10.876231
 O    0.995206   15.785266    4.709361
 O    0.969209   12.551858   17.100746
 O    0.966913    9.694941   10.933876
 O    0.953763   18.542192    4.651697
 O    0.938619    3.604596   17.158392
 O    0.925469   12.451848   10.876231
 O    0.923172    9.594931    4.709361
 O    0.897175    6.361523   17.100746
 O    0.894878    3.504587   10.933876
 O    0.881728   12.351839    4.651697
 O    0.853435    6.261513   10.876231
 O    0.851138    3.404577    4.709361
 O    0.809694    6.161503    4.651697
 H   16.961048   13.687720   13.967415
 H   16.917307   13.587711    7.742900
 H   16.889013    7.497385   13.967415
 H   16.885415   13.486227   17.095275
 H   16.873567   13.487701    1.518385
 H   16.845273    7.397375    7.742900
 H   16.841675   13.386217   10.870760
 H   16.816979    1.307050   13.967415
 H   16.813381    7.295873   17.095275
 H   16.801533    7.297366    1.518385
 H   16.797934   13.286208    4.646244
 H   16.794846   15.013296   17.120241
 H   16.773239    1.207040    7.742900
 H   16.769641    7.195864   10.870760
 H   16.751106   14.913286   10.895726
 H   16.741347    1.105538   17.095275
 H   16.729499    1.107031    1.518385
 H   16.725900    7.095854    4.646244
 H   16.722812    8.822961   17.120241
 H   16.707366   14.813276    4.671211
 H   16.697606    1.005529   10.870760
 H   16.679072    8.722952   10.895726
 H   16.653866    0.905519    4.646244
 H   16.650778    2.632626   17.120241
 H   16.635332    8.622942    4.671211
 H   16.607038    2.532616   10.895726
 H   16.575157   18.540616   13.247886
 H   16.563298    2.432607    4.671211
 H   16.531417   18.440607    7.023370
 H   16.513468   15.869328   14.743843
 H   16.513174   15.945140   13.220790
 H   16.503123   12.350281   13.247886
 H   16.487676   18.340597    0.798855
 H   16.469727   15.769318    8.519310
 H   16.469433   15.845131    6.996275
 H   16.459383   12.250272    7.023370
 H   16.441434    9.678993   14.743843
 H   16.441139    9.754787   13.220790
 H   16.431089    6.159946   13.247886
 H   16.425987   15.669308    2.294794
 H   16.425693   15.745121    0.771741
 H   16.415642   12.150262    0.798855
 H   16.397693    9.578983    8.519310
 H   16.397399    9.654777    6.996275
 H   16.387349    6.059937    7.023370
 H   16.369400    3.488658   14.743843
 H   16.369105    3.564452   13.220790
 H   16.359055   -0.030407   13.247886
 H   16.353953    9.478973    2.294794
 H   16.353659    9.554767    0.771741
 H   16.343608    5.959927    0.798855
 H   16.325659    3.388648    8.519310
 H   16.325365    3.464442    6.996275
 H   16.315314   -0.130417    7.023370
 H   16.281919    3.288639    2.294794
 H   16.281625    3.364432    0.771741
 H   16.271574   -0.230427    0.798855
 H   16.116507   17.969926   15.318970
 H   16.072767   17.869916    9.094455
 H   16.044473   11.779591   15.318970
 H   16.029026   17.769906    2.869922
 H   16.000733   11.679581    9.094455
 H   15.972439    5.589237   15.318970
 H   15.956992   11.579571    2.869922
 H   15.928698    5.489227    9.094455
 H   15.884958    5.389217    2.869922
 H   15.589143   17.332924   17.541872
 H   15.545403   17.232915   11.317357
 H   15.517109   11.142589   17.541872
 H   15.501663   17.132905    5.092822
 H   15.473369   11.042580   11.317357
 H   15.445075    4.952254   17.541872
 H   15.429628   10.942570    5.092822
 H   15.401335    4.852244   11.317357
 H   15.357594    4.752234    5.092822
 H   14.901142   14.183069   15.840169
 H   14.898042   14.204410   18.435159
 H   14.857401   14.083059    9.615634
 H   14.854302   14.104400   12.210644
 H   14.829108    7.992716   15.840169
 H   14.826008    8.014056   18.435159
 H   14.813661   13.983050    3.391119
 H   14.810561   14.004391    5.986129
 H   14.786088   17.347361   18.911970
 H   14.785367    7.892706    9.615634
 H   14.782267    7.914046   12.210644
 H   14.766821   13.904381   -0.238406
 H   14.757073    1.802381   15.840169
 H   14.753974    1.823721   18.435159
 H   14.742348   17.247351   12.687436
 H   14.741627    7.792697    3.391119
 H   14.739230   17.268691   15.282445
 H   14.738527    7.814037    5.986129
 H   14.714054   11.157026   18.911970
 H   14.713333    1.702371    9.615634
 H   14.710233    1.723711   12.210644
 H   14.698607   17.147341    6.462920
 H   14.695490   17.168682    9.057930
 H   14.694787    7.714027   -0.238406
 H   14.670314   11.057016   12.687436
 H   14.669593    1.602361    3.391119
 H   14.667196   11.078356   15.282445
 H   14.666493    1.623702    5.986129
 H   14.654867   17.047332    0.238406
 H   14.651749   17.068672    2.833396
 H   14.642020    4.966672   18.911970
 H   14.626573   10.957006    6.462920
 H   14.623456   10.978346    9.057930
 H   14.622753    1.523692   -0.238406
 H   14.598279    4.866662   12.687436
 H   14.595162    4.888003   15.282445
 H   14.582833   10.856997    0.238406
 H   14.579715   10.878337    2.833396
 H   14.554539    4.766652    6.462920
 H   14.551421    4.787993    9.057930
 H   14.510799    4.666643    0.238406
 H   14.507681    4.687984    2.833396
 H   14.051246   14.118818   13.580742
 H   14.007506   14.018808    7.356208
 H   13.979212    7.928483   13.580742
 H   13.963765   13.918799    1.131693
 H   13.935472    7.828473    7.356208
 H   13.907178    1.738148   13.580742
 H   13.891731    7.728463    1.131693
 H   13.863438    1.638138    7.356208
 H   13.819697    1.538128    1.131693
 H   13.523866   13.481836   15.803642
 H   13.480125   13.381826    9.579109
 H   13.451831    7.291481   15.803642
 H   13.436385   13.281816    3.354594
 H   13.408091    7.191472    9.579109
 H   13.379797    1.101147   15.803642
 H   13.364351    7.091462    3.354594
 H   13.336057    1.001137    9.579109
 H   13.292317    0.901127    3.354594
 H   13.137267   19.101479   17.874710
 H   13.127216   15.506620   17.901823
 H   13.126922   15.582414   16.378770
 H   13.093527   19.001470   11.650194
 H   13.083476   15.406610   11.677290
 H   13.083182   15.482405   10.154255
 H   13.065233   12.911125   17.874710
 H   13.055182    9.316286   17.901823
 H   13.054888    9.392079   16.378770
 H   13.049786   18.901460    5.425679
 H   13.039735   15.306601    5.452774
 H   13.039441   15.382395    3.929721
 H   13.021493   12.811116   11.650194
 H   13.011442    9.216276   11.677290
 H   13.011148    9.292070   10.154255
 H   12.993199    6.720791   17.874710
 H   12.983148    3.125932   17.901823
 H   12.982854    3.201744   16.378770
 H   12.977752   12.711106    5.425679
 H   12.967701    9.116266    5.452774
 H   12.967407    9.192060    3.929721
 H   12.949458    6.620781   11.650194
 H   12.939407    3.025922   11.677290
 H   12.939113    3.101735   10.154255
 H   12.921165    0.530456   17.874710
 H   12.905718    6.520771    5.425679
 H   12.895667    2.925912    5.452774
 H   12.895373    3.001725    3.929721
 H   12.877424    0.430446   11.650194
 H   12.845543   16.438446   14.002353
 H   12.833684    0.330436    5.425679
 H   12.801803   16.338436    7.777838
 H   12.773509   10.248111   14.002353
 H   12.758063   16.238427    1.553323
 H   12.754957   17.965534   14.027320
 H   12.729769   10.148101    7.777838
 H   12.711216   17.865524    7.802805
 H   12.701475    4.057776   14.002353
 H   12.686029   10.048091    1.553323
 H   12.682923   11.775199   14.027320
 H   12.679342   17.764022   17.155179
 H   12.667476   17.765514    1.578289
 H   12.657735    3.957767    7.777838
 H   12.639182   11.675189    7.802805
 H   12.635602   17.664013   10.930664
 H   12.613995    3.857757    1.553323
 H   12.610888    5.584845   14.027320
 H   12.607308   11.573687   17.155179
 H   12.595442   11.575179    1.578289
 H   12.591862   17.564003    4.706149
 H   12.567148    5.484835    7.802805
 H   12.563568   11.473677   10.930664
 H   12.535274    5.383352   17.155179
 H   12.523408    5.384826    1.578289
 H   12.519828   11.373668    4.706149
 H   12.491534    5.283342   10.930664
 H   12.447794    5.183332    4.706149
 H   11.148751   13.687720   13.967415
 H   11.105011   13.587711    7.742900
 H   11.076717    7.497385   13.967415
 H   11.073119   13.486227   17.095275
 H   11.061271   13.487701    1.518385
 H   11.032977    7.397375    7.742900
 H   11.029379   13.386217   10.870760
 H   11.004683    1.307050   13.967415
 H   11.001085    7.295873   17.095275
 H   10.989236    7.297366    1.518385
 H   10.985639   13.286208    4.646244
 H   10.982532   15.013296   17.120241
 H   10.960943    1.207040    7.742900
 H   10.957345    7.195864   10.870760
 H   10.938792   14.913286   10.895726
 H   10.929051    1.105538   17.095275
 H   10.917202    1.107031    1.518385
 H   10.913604    7.095854    4.646244
 H   10.910498    8.822961   17.120241
 H   10.895051   14.813276    4.671211
 H   10.885311    1.005529   10.870760
 H   10.866758    8.722952   10.895726
 H   10.841570    0.905519    4.646244
 H   10.838464    2.632626   17.120241
 H   10.823017    8.622942    4.671211
 H   10.794724    2.532616   10.895726
 H   10.762843   18.540616   13.247886
 H   10.750983    2.432607    4.671211
 H   10.719103   18.440607    7.023370
 H   10.701154   15.869328   14.743843
 H   10.700877   15.945140   13.220790
 H   10.690809   12.350281   13.247886
 H   10.675362   18.340597    0.798855
 H   10.657414   15.769318    8.519310
 H   10.657137   15.845131    6.996275
 H   10.647069   12.250272    7.023370
 H   10.629120    9.678993   14.743843
 H   10.628843    9.754787   13.220790
 H   10.618775    6.159946   13.247886
 H   10.613673   15.669308    2.294794
 H   10.613396   15.745121    0.771741
 H   10.603328   12.150262    0.798855
 H   10.585380    9.578983    8.519310
 H   10.585103    9.654777    6.996275
 H   10.575035    6.059937    7.023370
 H   10.557086    3.488658   14.743843
 H   10.556809    3.564452   13.220790
 H   10.546741   -0.030407   13.247886
 H   10.541639    9.478973    2.294794
 H   10.541362    9.554767    0.771741
 H   10.531294    5.959927    0.798855
 H   10.513346    3.388648    8.519310
 H   10.513069    3.464442    6.996275
 H   10.503000   -0.130417    7.023370
 H   10.469605    3.288639    2.294794
 H   10.469328    3.364432    0.771741
 H   10.459260   -0.230427    0.798855
 H   10.304211   17.969926   15.318970
 H   10.260470   17.869916    9.094455
 H   10.232177   11.779591   15.318970
 H   10.216730   17.769906    2.869922
 H   10.188436   11.679581    9.094455
 H   10.160142    5.589237   15.318970
 H   10.144696   11.579571    2.869922
 H   10.116402    5.489227    9.094455
 H   10.072661    5.389217    2.869922
 H    9.776829   17.332924   17.541872
 H    9.733089   17.232915   11.317357
 H    9.704795   11.142589   17.541872
 H    9.689349   17.132905    5.092822
 H    9.661055   11.042580   11.317357
 H    9.632761    4.952254   17.541872
 H    9.617314   10.942570    5.092822
 H    9.589021    4.852244   11.317357
 H    9.545280    4.752234    5.092822
 H    9.088846   14.183069   15.840169
 H    9.085728   14.204410   18.435159
 H    9.045106   14.083059    9.615634
 H    9.041987   14.104400   12.210644
 H    9.016812    7.992716   15.840169
 H    9.013693    8.014056   18.435159
 H    9.001365   13.983050    3.391119
 H    8.998247   14.004391    5.986129
 H    8.973792   17.347361   18.911970
 H    8.973071    7.892706    9.615634
 H    8.969953    7.914046   12.210644
 H    8.954507   13.904381   -0.238406
 H    8.944778    1.802381   15.840169
 H    8.941659    1.823721   18.435159
 H    8.930052   17.247351   12.687436
 H    8.929331    7.792697    3.391119
 H    8.926933   17.268691   15.282445
 H    8.926213    7.814037    5.986129
 H    8.901758   11.157026   18.911970
 H    8.901037    1.702371    9.615634
 H    8.897919    1.723711   12.210644
 H    8.886311   17.147341    6.462920
 H    8.883193   17.168682    9.057930
 H    8.882472    7.714027   -0.238406
 H    8.858018   11.057016   12.687436
 H    8.857297    1.602361    3.391119
 H    8.854899   11.078356   15.282445
 H    8.854179    1.623702    5.986129
 H    8.842571   17.047332    0.238406
 H    8.839453   17.068672    2.833396
 H    8.829724    4.966672   18.911970
 H    8.814277   10.957006    6.462920
 H    8.811159   10.978346    9.057930
 H    8.810438    1.523692   -0.238406
 H    8.785983    4.866662   12.687436
 H    8.782865    4.888003   15.282445
 H    8.770537   10.856997    0.238406
 H    8.767419   10.878337    2.833396
 H    8.742243    4.766652    6.462920
 H    8.739125    4.787993    9.057930
 H    8.698503    4.666643    0.238406
 H    8.695384    4.687984    2.833396
 H    8.238950   14.118818   13.580742
 H    8.195210   14.018808    7.356208
 H    8.166916    7.928483   13.580742
 H    8.151469   13.918799    1.131693
 H    8.123175    7.828473    7.356208
 H    8.094882    1.738148   13.580742
 H    8.079435    7.728463    1.131693
 H    8.051141    1.638138    7.356208
 H    8.007401    1.538128    1.131693
 H    7.711569   13.481836   15.803642
 H    7.667829   13.381826    9.579109
 H    7.639535    7.291481   15.803642
 H    7.624088   13.281816    3.354594
 H    7.595794    7.191472    9.579109
 H    7.567501    1.101147   15.803642
 H    7.552054    7.091462    3.354594
 H    7.523760    1.001137    9.579109
 H    7.480020    0.901127    3.354594
 H    7.324970   19.101479   17.874710
 H    7.314902   15.506620   17.901823
 H    7.314625   15.582414   16.378770
 H    7.281230   19.001470   11.650194
 H    7.271162   15.406610   11.677290
 H    7.270885   15.482405   10.154255
 H    7.252936   12.911125   17.874710
 H    7.242868    9.316286   17.901823
 H    7.242591    9.392079   16.378770
 H    7.237490   18.901460    5.425679
 H    7.227422   15.306601    5.452774
 H    7.227144   15.382395    3.929721
 H    7.209196   12.811116   11.650194
 H    7.199128    9.216276   11.677290
 H    7.198851    9.292070   10.154255
 H    7.180902    6.720791   17.874710
 H    7.170834    3.125932   17.901823
 H    7.170557    3.201744   16.378770
 H    7.165455   12.711106    5.425679
 H    7.155387    9.116266    5.452774
 H    7.155110    9.192060    3.929721
 H    7.137162    6.620781   11.650194
 H    7.127094    3.025922   11.677290
 H    7.126817    3.101735   10.154255
 H    7.108868    0.530456   17.874710
 H    7.093421    6.520771    5.425679
 H    7.083353    2.925912    5.452774
 H    7.083076    3.001725    3.929721
 H    7.065128    0.430446   11.650194
 H    7.033247   16.438446   14.002353
 H    7.021387    0.330436    5.425679
 H    6.989507   16.338436    7.777838
 H    6.961213   10.248111   14.002353
 H    6.945767   16.238427    1.553323
 H    6.942660   17.965534   14.027320
 H    6.917473   10.148101    7.777838
 H    6.898920   17.865524    7.802805
 H    6.889179    4.057776   14.002353
 H    6.873732   10.048091    1.553323
 H    6.870626   11.775199   14.027320
 H    6.867028   17.764022   17.155179
 H    6.855179   17.765514    1.578289
 H    6.845439    3.957767    7.777838
 H    6.826886   11.675189    7.802805
 H    6.823288   17.664013   10.930664
 H    6.801698    3.857757    1.553323
 H    6.798592    5.584845   14.027320
 H    6.794994   11.573687   17.155179
 H    6.783145   11.575179    1.578289
 H    6.779547   17.564003    4.706149
 H    6.754851    5.484835    7.802805
 H    6.751254   11.473677   10.930664
 H    6.722960    5.383352   17.155179
 H    6.711111    5.384826    1.578289
 H    6.707513   11.373668    4.706149
 H    6.679220    5.283342   10.930664
 H    6.635479    5.183332    4.706149
 H    5.336437   13.687720   13.967415
 H    5.292697   13.587711    7.742900
 H    5.264403    7.497385   13.967415
 H    5.260823   13.486227   17.095275
 H    5.248956   13.487701    1.518385
 H    5.220662    7.397375    7.742900
 H    5.217082   13.386217   10.870760
 H    5.192369    1.307050   13.967415
 H    5.188788    7.295873   17.095275
 H    5.176922    7.297366    1.518385
 H    5.173342   13.286208    4.646244
 H    5.170236   15.013296   17.120241
 H    5.148628    1.207040    7.742900
 H    5.145048    7.195864   10.870760
 H    5.126496   14.913286   10.895726
 H    5.116754    1.105538   17.095275
 H    5.104888    1.107031    1.518385
 H    5.101308    7.095854    4.646244
 H    5.098202    8.822961   17.120241
 H    5.082755   14.813276    4.671211
 H    5.073014    1.005529   10.870760
 H    5.054461    8.722952   10.895726
 H    5.029274    0.905519    4.646244
 H    5.026168    2.632626   17.120241
 H    5.010721    8.622942    4.671211
 H    4.982427    2.532616   10.895726
 H    4.950546   18.540616   13.247886
 H    4.938687    2.432607    4.671211
 H    4.906806   18.440607    7.023370
 H    4.888857   15.869328   14.743843
 H    4.888563   15.945140   13.220790
 H    4.878512   12.350281   13.247886
 H    4.863066   18.340597    0.798855
 H    4.845117   15.769318    8.519310
 H    4.844823   15.845131    6.996275
 H    4.834772   12.250272    7.023370
 H    4.816823    9.678993   14.743843
 H    4.816529    9.754787   13.220790
 H    4.806478    6.159946   13.247886
 H    4.801377   15.669308    2.294794
 H    4.801083   15.745121    0.771741
 H    4.791032   12.150262    0.798855
 H    4.773083    9.578983    8.519310
 H    4.772789    9.654777    6.996275
 H    4.762738    6.059937    7.023370
 H    4.744789    3.488658   14.743843
 H    4.744495    3.564452   13.220790
 H    4.734444   -0.030407   13.247886
 H    4.729343    9.478973    2.294794
 H    4.729048    9.554767    0.771741
 H    4.718998    5.959927    0.798855
 H    4.701049    3.388648    8.519310
 H    4.700755    3.464442    6.996275
 H    4.690704   -0.130417    7.023370
 H    4.657308    3.288639    2.294794
 H    4.657014    3.364432    0.771741
 H    4.646963   -0.230427    0.798855
 H    4.491914   17.969926   15.318970
 H    4.448174   17.869916    9.094455
 H    4.419880   11.779591   15.318970
 H    4.404433   17.769906    2.869922
 H    4.376139   11.679581    9.094455
 H    4.347846    5.589237   15.318970
 H    4.332399   11.579571    2.869922
 H    4.304105    5.489227    9.094455
 H    4.260365    5.389217    2.869922
 H    3.964533   17.332924   17.541872
 H    3.920793   17.232915   11.317357
 H    3.892499   11.142589   17.541872
 H    3.877052   17.132905    5.092822
 H    3.848759   11.042580   11.317357
 H    3.820465    4.952254   17.541872
 H    3.805018   10.942570    5.092822
 H    3.776725    4.852244   11.317357
 H    3.732984    4.752234    5.092822
 H    3.276549   14.183069   15.840169
 H    3.273432   14.204410   18.435159
 H    3.232809   14.083059    9.615634
 H    3.229691   14.104400   12.210644
 H    3.204515    7.992716   15.840169
 H    3.201397    8.014056   18.435159
 H    3.189069   13.983050    3.391119
 H    3.185951   14.004391    5.986129
 H    3.161478   17.347361   18.911970
 H    3.160775    7.892706    9.615634
 H    3.157657    7.914046   12.210644
 H    3.142211   13.904381   -0.238406
 H    3.132481    1.802381   15.840169
 H    3.129363    1.823721   18.435159
 H    3.117737   17.247351   12.687436
 H    3.117034    7.792697    3.391119
 H    3.114638   17.268691   15.282445
 H    3.113917    7.814037    5.986129
 H    3.089444   11.157026   18.911970
 H    3.088741    1.702371    9.615634
 H    3.085623    1.723711   12.210644
 H    3.073997   17.147341    6.462920
 H    3.070897   17.168682    9.057930
 H    3.070176    7.714027   -0.238406
 H    3.045703   11.057016   12.687436
 H    3.045000    1.602361    3.391119
 H    3.042604   11.078356   15.282445
 H    3.041883    1.623702    5.986129
 H    3.030257   17.047332    0.238406
 H    3.027157   17.068672    2.833396
 H    3.017410    4.966672   18.911970
 H    3.001963   10.957006    6.462920
 H    2.998863   10.978346    9.057930
 H    2.998142    1.523692   -0.238406
 H    2.973669    4.866662   12.687436
 H    2.970569    4.888003   15.282445
 H    2.958223   10.856997    0.238406
 H    2.955123   10.878337    2.833396
 H    2.929929    4.766652    6.462920
 H    2.926829    4.787993    9.057930
 H    2.886188    4.666643    0.238406
 H    2.883089    4.687984    2.833396
 H    2.426636   14.118818   13.580742
 H    2.382896   14.018808    7.356208
 H    2.354602    7.928483   13.580742
 H    2.339155   13.918799    1.131693
 H    2.310861    7.828473    7.356208
 H    2.282568    1.738148   13.580742
 H    2.267121    7.728463    1.131693
 H    2.238827    1.638138    7.356208
 H    2.195087    1.538128    1.131693
 H    1.899273   13.481836   15.803642
 H    1.855532   13.381826    9.579109
 H    1.827238    7.291481   15.803642
 H    1.811792   13.281816    3.354594
 H    1.783498    7.191472    9.579109
 H    1.755204    1.101147   15.803642
 H    1.739758    7.091462    3.354594
 H    1.711464    1.001137    9.579109
 H    1.667723    0.901127    3.354594
 H    1.512657   19.101479   17.874710
 H    1.502606   15.506620   17.901823
 H    1.502312   15.582414   16.378770
 H    1.468916   19.001470   11.650194
 H    1.458865   15.406610   11.677290
 H    1.458571   15.482405   10.154255
 H    1.440622   12.911125   17.874710
 H    1.430572    9.316286   17.901823
 H    1.430278    9.392079   16.378770
 H    1.425176   18.901460    5.425679
 H    1.415125   15.306601    5.452774
 H    1.414831   15.382395    3.929721
 H    1.396882   12.811116   11.650194
 H    1.386831    9.216276   11.677290
 H    1.386537    9.292070   10.154255
 H    1.368588    6.720791   17.874710
 H    1.358538    3.125932   17.901823
 H    1.358243    3.201744   16.378770
 H    1.353142   12.711106    5.425679
 H    1.343091    9.116266    5.452774
 H    1.342797    9.192060    3.929721
 H    1.324848    6.620781   11.650194
 H    1.314797    3.025922   11.677290
 H    1.314503    3.101735   10.154255
 H    1.296554    0.530456   17.874710
 H    1.281107    6.520771    5.425679
 H    1.271057    2.925912    5.452774
 H    1.270763    3.001725    3.929721
 H    1.252814    0.430446   11.650194
 H    1.220933   16.438446   14.002353
 H    1.209073    0.330436    5.425679
 H    1.177192   16.338436    7.777838
 H    1.148899   10.248111   14.002353
 H    1.133452   16.238427    1.553323
 H    1.130364   17.965534   14.027320
 H    1.105158   10.148101    7.777838
 H    1.086624   17.865524    7.802805
 H    1.076865    4.057776   14.002353
 H    1.061418   10.048091    1.553323
 H    1.058330   11.775199   14.027320
 H    1.054732   17.764022   17.155179
 H    1.042884   17.765514    1.578289
 H    1.033124    3.957767    7.777838
 H    1.014590   11.675189    7.802805
 H    1.010991   17.664013   10.930664
 H    0.989384    3.857757    1.553323
 H    0.986296    5.584845   14.027320
 H    0.982698   11.573687   17.155179
 H    0.970850   11.575179    1.578289
 H    0.967251   17.564003    4.706149
 H    0.942556    5.484835    7.802805
 H    0.938957   11.473677   10.930664
 H    0.910664    5.383352   17.155179
 H    0.898815    5.384826    1.578289
 H    0.895217   11.373668    4.706149
 H    0.866923    5.283342   10.930664
 H    0.823183    5.183332    4.706149
